Version 4
SHEET 1 2016 680
WIRE 1168 -80 1120 -80
WIRE 1424 -80 1248 -80
WIRE 896 0 896 -32
WIRE 896 96 896 80
WIRE 976 96 896 96
WIRE 1120 96 1120 -80
WIRE 1120 96 1056 96
WIRE 1168 96 1120 96
WIRE 896 112 896 96
WIRE 1424 112 1424 -80
WIRE 1424 112 1232 112
WIRE 1504 112 1424 112
WIRE 1168 128 1136 128
WIRE 896 224 896 192
FLAG 1136 128 ref
IOPIN 1136 128 In
FLAG 720 304 0
FLAG 720 224 ref
IOPIN 720 224 Out
FLAG 624 304 0
FLAG 624 224 VCC
IOPIN 624 224 Out
FLAG 1200 80 VCC
IOPIN 1200 80 In
FLAG 896 -32 VCC
IOPIN 896 -32 Out
FLAG 1200 144 0
FLAG 896 224 0
SYMBOL voltage 624 208 R0
WINDOW 123 0 0 Left 0
WINDOW 39 0 0 Left 0
SYMATTR InstName V1
SYMATTR Value 5
SYMBOL res 1072 80 R90
WINDOW 0 0 56 VBottom 2
WINDOW 3 32 56 VTop 2
SYMATTR InstName R7
SYMATTR Value 47k
SYMBOL OpAmps\\opamp2 1200 48 R0
WINDOW 3 65 115 Left 2
SYMATTR Value LM358_AB
SYMATTR InstName U2
SYMBOL voltage 720 208 R0
WINDOW 123 0 0 Left 0
WINDOW 39 0 0 Left 0
SYMATTR InstName V2
SYMATTR Value 1.1
SYMBOL res 1264 -96 R90
WINDOW 0 0 56 VBottom 2
WINDOW 3 32 56 VTop 2
SYMATTR InstName R1
SYMATTR Value 1k
SYMBOL res 880 -16 R0
SYMATTR InstName R2
SYMATTR Value 18.5k
SYMBOL res 880 96 R0
SYMATTR InstName R3
SYMATTR Value 81.5k
TEXT 824 352 Left 2 !.inc LM358_AB.sub
TEXT 824 376 Left 2 !.tran 0 100m 0
TEXT 848 24 VRight 2 ;100k trimmer
