Version 4
SHEET 1 2148 948
WIRE -928 -256 -1184 -256
WIRE -800 -256 -848 -256
WIRE -736 -256 -800 -256
WIRE -672 -256 -736 -256
WIRE -432 -256 -672 -256
WIRE -320 -256 -432 -256
WIRE -432 -224 -432 -256
WIRE -800 -160 -800 -256
WIRE -672 -144 -672 -256
WIRE -736 -128 -736 -256
WIRE -736 -128 -768 -128
WIRE -432 -128 -432 -144
WIRE -256 -128 -432 -128
WIRE -48 -128 -256 -128
WIRE -432 -48 -432 -128
WIRE -256 -32 -256 -128
WIRE -256 112 -256 48
WIRE -112 192 -208 192
WIRE -800 224 -800 -96
WIRE -800 224 -1184 224
WIRE -672 224 -672 -80
WIRE -672 224 -800 224
WIRE -432 224 -432 32
WIRE -432 224 -672 224
WIRE -256 224 -256 208
WIRE -256 224 -432 224
WIRE -112 224 -112 192
WIRE -112 336 -112 304
FLAG -1056 32 0
FLAG -1056 -48 VCC
IOPIN -1056 -48 Out
FLAG -1184 -256 VCC
IOPIN -1184 -256 In
FLAG -1184 224 0
FLAG -48 -128 V1
IOPIN -48 -128 Out
FLAG -320 -256 2.5V
IOPIN -320 -256 Out
FLAG -112 336 0
SYMBOL voltage -1056 -64 R0
WINDOW 123 0 0 Left 0
WINDOW 39 0 0 Left 0
SYMATTR InstName V1
SYMATTR Value 5
SYMBOL cap -688 -144 R0
SYMATTR InstName C3
SYMATTR Value 10µ
SYMBOL res -944 -240 R270
WINDOW 0 32 56 VTop 2
WINDOW 3 0 56 VBottom 2
SYMATTR InstName R7
SYMATTR Value 300
SYMBOL res -416 -128 R180
WINDOW 0 36 76 Left 2
WINDOW 3 36 40 Left 2
SYMATTR InstName R10
SYMATTR Value 2k
SYMBOL tl431 -784 -160 M0
WINDOW 0 32 0 Left 2
WINDOW 3 32 64 Left 2
SYMATTR InstName U1
SYMBOL res -416 48 R180
WINDOW 0 36 76 Left 2
WINDOW 3 36 40 Left 2
SYMATTR InstName R1
SYMATTR Value 1.333k
SYMBOL nmos -208 112 M0
SYMATTR InstName M1
SYMATTR Value AO6408
SYMBOL VOLTAGE -112 208 R0
WINDOW 123 0 0 Left 0
WINDOW 39 0 0 Left 0
SYMATTR InstName V2
SYMATTR Value PULSE(0 5 15m 40u 40u 50m 1000)
SYMBOL res -240 64 R180
WINDOW 0 36 76 Left 2
WINDOW 3 36 40 Left 2
SYMATTR InstName R3
SYMATTR Value 800
TEXT -800 368 Left 2 !.tran 0 100m 10m
TEXT -808 448 Left 2 !.inc TL431.lib
TEXT -1176 288 Left 2 ;Vin must be same or higher\nthan charger voltage
TEXT -904 -328 Left 2 ;1W
TEXT -1160 72 Left 2 ;min voltage 12V\nmax voltage 30V\nsets battery max voltage
